FoamFile
{
	version 2.0;
	format ascii;
	class dictionary;
	location "";
	object dCDFDict;
}
Div	20;
subDiv	20;

min_r	2.67542e-06;
max_r	1.99703e-05;
localMin0	6.69992e-06;
localMax0	7.3576e-05;
cdf0_0	0.0555556;
cdf0_1	0.0925926;
cdf0_2	0.148148;
cdf0_3	0.259259;
cdf0_4	0.277778;
cdf0_5	0.407407;
cdf0_6	0.555556;
cdf0_7	0.611111;
cdf0_8	0.740741;
cdf0_9	0.796296;
cdf0_10	0.814815;
cdf0_11	0.833333;
cdf0_12	0.851852;
cdf0_13	0.925926;
cdf0_14	0.944444;
cdf0_15	0.962963;
cdf0_16	0.962963;
cdf0_17	0.962963;
cdf0_18	0.981481;
cdf0_19	1;
localMin1	3.66153e-06;
localMax1	0.000122683;
cdf1_0	0.0677966;
cdf1_1	0.144068;
cdf1_2	0.220339;
cdf1_3	0.322034;
cdf1_4	0.432203;
cdf1_5	0.474576;
cdf1_6	0.550847;
cdf1_7	0.669492;
cdf1_8	0.745763;
cdf1_9	0.779661;
cdf1_10	0.830508;
cdf1_11	0.872881;
cdf1_12	0.898305;
cdf1_13	0.923729;
cdf1_14	0.940678;
cdf1_15	0.949153;
cdf1_16	0.957627;
cdf1_17	0.957627;
cdf1_18	0.983051;
cdf1_19	1;
localMin2	2.53003e-06;
localMax2	0.000150647;
cdf2_0	0.0418605;
cdf2_1	0.0976744;
cdf2_2	0.2;
cdf2_3	0.367442;
cdf2_4	0.483721;
cdf2_5	0.539535;
cdf2_6	0.637209;
cdf2_7	0.693023;
cdf2_8	0.748837;
cdf2_9	0.786047;
cdf2_10	0.813953;
cdf2_11	0.860465;
cdf2_12	0.897674;
cdf2_13	0.930233;
cdf2_14	0.95814;
cdf2_15	0.967442;
cdf2_16	0.972093;
cdf2_17	0.976744;
cdf2_18	0.986047;
cdf2_19	1;
localMin3	2.7326e-06;
localMax3	0.000204941;
cdf3_0	0.0329341;
cdf3_1	0.11976;
cdf3_2	0.236527;
cdf3_3	0.362275;
cdf3_4	0.5;
cdf3_5	0.601796;
cdf3_6	0.688623;
cdf3_7	0.748503;
cdf3_8	0.817365;
cdf3_9	0.889222;
cdf3_10	0.89521;
cdf3_11	0.92515;
cdf3_12	0.958084;
cdf3_13	0.979042;
cdf3_14	0.988024;
cdf3_15	0.991018;
cdf3_16	0.991018;
cdf3_17	0.994012;
cdf3_18	0.997006;
cdf3_19	1;
localMin4	5.75437e-06;
localMax4	0.000183569;
cdf4_0	0.0248619;
cdf4_1	0.0662983;
cdf4_2	0.132597;
cdf4_3	0.207182;
cdf4_4	0.290055;
cdf4_5	0.342541;
cdf4_6	0.447514;
cdf4_7	0.527624;
cdf4_8	0.59116;
cdf4_9	0.654696;
cdf4_10	0.71547;
cdf4_11	0.781768;
cdf4_12	0.814917;
cdf4_13	0.861878;
cdf4_14	0.922652;
cdf4_15	0.947514;
cdf4_16	0.966851;
cdf4_17	0.975138;
cdf4_18	0.991713;
cdf4_19	1;
localMin5	6.03596e-06;
localMax5	0.000237801;
cdf5_0	0.0205128;
cdf5_1	0.0384615;
cdf5_2	0.0923077;
cdf5_3	0.187179;
cdf5_4	0.269231;
cdf5_5	0.374359;
cdf5_6	0.520513;
cdf5_7	0.605128;
cdf5_8	0.694872;
cdf5_9	0.766667;
cdf5_10	0.835897;
cdf5_11	0.894872;
cdf5_12	0.928205;
cdf5_13	0.94359;
cdf5_14	0.961538;
cdf5_15	0.976923;
cdf5_16	0.989744;
cdf5_17	0.992308;
cdf5_18	0.997436;
cdf5_19	1;
localMin6	3.94929e-06;
localMax6	0.000234619;
cdf6_0	0.013089;
cdf6_1	0.0418848;
cdf6_2	0.0994764;
cdf6_3	0.162304;
cdf6_4	0.248691;
cdf6_5	0.337696;
cdf6_6	0.437173;
cdf6_7	0.54712;
cdf6_8	0.633508;
cdf6_9	0.704188;
cdf6_10	0.787958;
cdf6_11	0.861257;
cdf6_12	0.910995;
cdf6_13	0.931937;
cdf6_14	0.965969;
cdf6_15	0.979058;
cdf6_16	0.981675;
cdf6_17	0.989529;
cdf6_18	0.992147;
cdf6_19	1;
localMin7	7.68229e-06;
localMax7	0.000238861;
cdf7_0	0.0174419;
cdf7_1	0.0552326;
cdf7_2	0.107558;
cdf7_3	0.145349;
cdf7_4	0.238372;
cdf7_5	0.313953;
cdf7_6	0.424419;
cdf7_7	0.514535;
cdf7_8	0.590116;
cdf7_9	0.671512;
cdf7_10	0.738372;
cdf7_11	0.81686;
cdf7_12	0.863372;
cdf7_13	0.901163;
cdf7_14	0.936047;
cdf7_15	0.950581;
cdf7_16	0.968023;
cdf7_17	0.973837;
cdf7_18	0.991279;
cdf7_19	1;
localMin8	2.61444e-05;
localMax8	0.000239391;
cdf8_0	0.0122324;
cdf8_1	0.0428135;
cdf8_2	0.0703364;
cdf8_3	0.11315;
cdf8_4	0.201835;
cdf8_5	0.281346;
cdf8_6	0.385321;
cdf8_7	0.477064;
cdf8_8	0.550459;
cdf8_9	0.623853;
cdf8_10	0.691131;
cdf8_11	0.767584;
cdf8_12	0.825688;
cdf8_13	0.883792;
cdf8_14	0.917431;
cdf8_15	0.941896;
cdf8_16	0.969419;
cdf8_17	0.987768;
cdf8_18	0.996942;
cdf8_19	1;
localMin9	3.86252e-06;
localMax9	0.000294528;
cdf9_0	0.00350877;
cdf9_1	0.0140351;
cdf9_2	0.0491228;
cdf9_3	0.126316;
cdf9_4	0.185965;
cdf9_5	0.273684;
cdf9_6	0.375439;
cdf9_7	0.484211;
cdf9_8	0.578947;
cdf9_9	0.698246;
cdf9_10	0.807018;
cdf9_11	0.894737;
cdf9_12	0.933333;
cdf9_13	0.947368;
cdf9_14	0.97193;
cdf9_15	0.978947;
cdf9_16	0.992982;
cdf9_17	0.996491;
cdf9_18	0.996491;
cdf9_19	1;
localMin10	2.1382e-05;
localMax10	0.000295678;
cdf10_0	0.00877193;
cdf10_1	0.0350877;
cdf10_2	0.0877193;
cdf10_3	0.140351;
cdf10_4	0.201754;
cdf10_5	0.315789;
cdf10_6	0.385965;
cdf10_7	0.486842;
cdf10_8	0.609649;
cdf10_9	0.692982;
cdf10_10	0.802632;
cdf10_11	0.864035;
cdf10_12	0.912281;
cdf10_13	0.951754;
cdf10_14	0.964912;
cdf10_15	0.986842;
cdf10_16	0.986842;
cdf10_17	0.991228;
cdf10_18	0.995614;
cdf10_19	1;
localMin11	1.73283e-05;
localMax11	0.000264476;
cdf11_0	0.00985222;
cdf11_1	0.0344828;
cdf11_2	0.0541872;
cdf11_3	0.108374;
cdf11_4	0.133005;
cdf11_5	0.172414;
cdf11_6	0.221675;
cdf11_7	0.315271;
cdf11_8	0.418719;
cdf11_9	0.507389;
cdf11_10	0.64532;
cdf11_11	0.724138;
cdf11_12	0.788177;
cdf11_13	0.871921;
cdf11_14	0.916256;
cdf11_15	0.945813;
cdf11_16	0.980296;
cdf11_17	0.980296;
cdf11_18	0.990148;
cdf11_19	1;
localMin12	3.5665e-05;
localMax12	0.000353607;
cdf12_0	0.0282486;
cdf12_1	0.0621469;
cdf12_2	0.124294;
cdf12_3	0.20339;
cdf12_4	0.310734;
cdf12_5	0.412429;
cdf12_6	0.531073;
cdf12_7	0.677966;
cdf12_8	0.779661;
cdf12_9	0.875706;
cdf12_10	0.926554;
cdf12_11	0.949153;
cdf12_12	0.966102;
cdf12_13	0.983051;
cdf12_14	0.99435;
cdf12_15	0.99435;
cdf12_16	0.99435;
cdf12_17	0.99435;
cdf12_18	0.99435;
cdf12_19	1;
localMin13	2.00463e-05;
localMax13	0.000269512;
cdf13_0	0.00775194;
cdf13_1	0.0155039;
cdf13_2	0.0310078;
cdf13_3	0.0620155;
cdf13_4	0.108527;
cdf13_5	0.162791;
cdf13_6	0.209302;
cdf13_7	0.356589;
cdf13_8	0.410853;
cdf13_9	0.534884;
cdf13_10	0.589147;
cdf13_11	0.643411;
cdf13_12	0.744186;
cdf13_13	0.875969;
cdf13_14	0.914729;
cdf13_15	0.976744;
cdf13_16	0.976744;
cdf13_17	0.984496;
cdf13_18	0.984496;
cdf13_19	1;
localMin14	2.64019e-05;
localMax14	0.000308604;
cdf14_0	0.0176991;
cdf14_1	0.0442478;
cdf14_2	0.0973451;
cdf14_3	0.123894;
cdf14_4	0.20354;
cdf14_5	0.283186;
cdf14_6	0.353982;
cdf14_7	0.39823;
cdf14_8	0.539823;
cdf14_9	0.725664;
cdf14_10	0.814159;
cdf14_11	0.876106;
cdf14_12	0.893805;
cdf14_13	0.920354;
cdf14_14	0.964602;
cdf14_15	0.973451;
cdf14_16	0.99115;
cdf14_17	0.99115;
cdf14_18	0.99115;
cdf14_19	1;
localMin15	2.83222e-05;
localMax15	0.000266097;
cdf15_0	0.025641;
cdf15_1	0.025641;
cdf15_2	0.0512821;
cdf15_3	0.0512821;
cdf15_4	0.0641026;
cdf15_5	0.128205;
cdf15_6	0.25641;
cdf15_7	0.307692;
cdf15_8	0.371795;
cdf15_9	0.525641;
cdf15_10	0.641026;
cdf15_11	0.717949;
cdf15_12	0.807692;
cdf15_13	0.884615;
cdf15_14	0.910256;
cdf15_15	0.948718;
cdf15_16	0.961538;
cdf15_17	0.961538;
cdf15_18	0.961538;
cdf15_19	1;
localMin16	1.65014e-05;
localMax16	0.000343159;
cdf16_0	0.0151515;
cdf16_1	0.030303;
cdf16_2	0.0606061;
cdf16_3	0.136364;
cdf16_4	0.242424;
cdf16_5	0.378788;
cdf16_6	0.469697;
cdf16_7	0.560606;
cdf16_8	0.666667;
cdf16_9	0.727273;
cdf16_10	0.818182;
cdf16_11	0.878788;
cdf16_12	0.909091;
cdf16_13	0.954545;
cdf16_14	0.969697;
cdf16_15	0.984848;
cdf16_16	0.984848;
cdf16_17	0.984848;
cdf16_18	0.984848;
cdf16_19	1;
localMin17	4.99245e-05;
localMax17	0.000251038;
cdf17_0	0.0217391;
cdf17_1	0.0217391;
cdf17_2	0.0217391;
cdf17_3	0.0652174;
cdf17_4	0.173913;
cdf17_5	0.173913;
cdf17_6	0.26087;
cdf17_7	0.304348;
cdf17_8	0.456522;
cdf17_9	0.543478;
cdf17_10	0.652174;
cdf17_11	0.695652;
cdf17_12	0.717391;
cdf17_13	0.804348;
cdf17_14	0.869565;
cdf17_15	0.891304;
cdf17_16	0.956522;
cdf17_17	0.956522;
cdf17_18	0.956522;
cdf17_19	1;
localMin18	4.18036e-05;
localMax18	0.00028227;
cdf18_0	0.0277778;
cdf18_1	0.0277778;
cdf18_2	0.0277778;
cdf18_3	0.0555556;
cdf18_4	0.194444;
cdf18_5	0.222222;
cdf18_6	0.25;
cdf18_7	0.333333;
cdf18_8	0.444444;
cdf18_9	0.583333;
cdf18_10	0.638889;
cdf18_11	0.694444;
cdf18_12	0.75;
cdf18_13	0.777778;
cdf18_14	0.833333;
cdf18_15	0.861111;
cdf18_16	0.888889;
cdf18_17	0.944444;
cdf18_18	0.972222;
cdf18_19	1;
localMin19	4.47596e-05;
localMax19	0.000310479;
cdf19_0	0.04;
cdf19_1	0.04;
cdf19_2	0.04;
cdf19_3	0.16;
cdf19_4	0.24;
cdf19_5	0.4;
cdf19_6	0.44;
cdf19_7	0.48;
cdf19_8	0.72;
cdf19_9	0.76;
cdf19_10	0.88;
cdf19_11	0.88;
cdf19_12	0.88;
cdf19_13	0.92;
cdf19_14	0.92;
cdf19_15	0.96;
cdf19_16	0.96;
cdf19_17	0.96;
cdf19_18	0.96;
cdf19_19	1;
