FoamFile
{
	version 2.0;
	format ascii;
	class dictionary;
	location "";
	object velAzCDFDict;
}
Div	20;
subDiv	20;

min_r	2.53003e-06;
max_r	0.000353607;
localMin0	-120.687;
localMax0	80.0696;
cdf0_0	0.00662252;
cdf0_1	0.00662252;
cdf0_2	0.00662252;
cdf0_3	0.00662252;
cdf0_4	0.00662252;
cdf0_5	0.0331126;
cdf0_6	0.0662252;
cdf0_7	0.125828;
cdf0_8	0.192053;
cdf0_9	0.291391;
cdf0_10	0.390728;
cdf0_11	0.536424;
cdf0_12	0.668874;
cdf0_13	0.748344;
cdf0_14	0.86755;
cdf0_15	0.874172;
cdf0_16	0.92053;
cdf0_17	0.953642;
cdf0_18	0.986755;
cdf0_19	1;
localMin1	-83.299;
localMax1	92.2051;
cdf1_0	0.00589971;
cdf1_1	0.0147493;
cdf1_2	0.0235988;
cdf1_3	0.0707965;
cdf1_4	0.120944;
cdf1_5	0.179941;
cdf1_6	0.280236;
cdf1_7	0.386431;
cdf1_8	0.486726;
cdf1_9	0.59292;
cdf1_10	0.696165;
cdf1_11	0.784661;
cdf1_12	0.837758;
cdf1_13	0.884956;
cdf1_14	0.943953;
cdf1_15	0.961652;
cdf1_16	0.976401;
cdf1_17	0.985251;
cdf1_18	0.9941;
cdf1_19	1;
localMin2	-90.8166;
localMax2	105.879;
cdf2_0	0.00512821;
cdf2_1	0.0230769;
cdf2_2	0.0410256;
cdf2_3	0.0692308;
cdf2_4	0.0974359;
cdf2_5	0.182051;
cdf2_6	0.233333;
cdf2_7	0.330769;
cdf2_8	0.45641;
cdf2_9	0.582051;
cdf2_10	0.710256;
cdf2_11	0.812821;
cdf2_12	0.861538;
cdf2_13	0.902564;
cdf2_14	0.958974;
cdf2_15	0.976923;
cdf2_16	0.989744;
cdf2_17	0.992308;
cdf2_18	0.994872;
cdf2_19	1;
localMin3	-110.771;
localMax3	106.064;
cdf3_0	0.00483092;
cdf3_1	0.00966184;
cdf3_2	0.0169082;
cdf3_3	0.02657;
cdf3_4	0.0434783;
cdf3_5	0.0797101;
cdf3_6	0.13285;
cdf3_7	0.207729;
cdf3_8	0.309179;
cdf3_9	0.439614;
cdf3_10	0.601449;
cdf3_11	0.707729;
cdf3_12	0.806763;
cdf3_13	0.855072;
cdf3_14	0.891304;
cdf3_15	0.942029;
cdf3_16	0.963768;
cdf3_17	0.983092;
cdf3_18	0.992754;
cdf3_19	1;
localMin4	-118.29;
localMax4	99.0447;
cdf4_0	0.00222222;
cdf4_1	0.00444444;
cdf4_2	0.00666667;
cdf4_3	0.00888889;
cdf4_4	0.0111111;
cdf4_5	0.0266667;
cdf4_6	0.0622222;
cdf4_7	0.106667;
cdf4_8	0.202222;
cdf4_9	0.32;
cdf4_10	0.475556;
cdf4_11	0.626667;
cdf4_12	0.731111;
cdf4_13	0.82;
cdf4_14	0.917778;
cdf4_15	0.955556;
cdf4_16	0.975556;
cdf4_17	0.984444;
cdf4_18	0.997778;
cdf4_19	1;
localMin5	-86.2321;
localMax5	99.149;
cdf5_0	0.00677201;
cdf5_1	0.013544;
cdf5_2	0.020316;
cdf5_3	0.0519187;
cdf5_4	0.0790068;
cdf5_5	0.128668;
cdf5_6	0.196388;
cdf5_7	0.322799;
cdf5_8	0.480813;
cdf5_9	0.598194;
cdf5_10	0.706546;
cdf5_11	0.778781;
cdf5_12	0.844244;
cdf5_13	0.907449;
cdf5_14	0.954853;
cdf5_15	0.979684;
cdf5_16	0.986456;
cdf5_17	0.997743;
cdf5_18	0.997743;
cdf5_19	1;
localMin6	-111.852;
localMax6	112.811;
cdf6_0	0.00484262;
cdf6_1	0.00968523;
cdf6_2	0.0169492;
cdf6_3	0.0193705;
cdf6_4	0.0508475;
cdf6_5	0.0895884;
cdf6_6	0.164649;
cdf6_7	0.263923;
cdf6_8	0.368039;
cdf6_9	0.510896;
cdf6_10	0.651332;
cdf6_11	0.769976;
cdf6_12	0.8523;
cdf6_13	0.915254;
cdf6_14	0.953995;
cdf6_15	0.978208;
cdf6_16	0.985472;
cdf6_17	0.995157;
cdf6_18	0.997579;
cdf6_19	1;
localMin7	-104.754;
localMax7	87.7953;
cdf7_0	0.00254453;
cdf7_1	0.00508906;
cdf7_2	0.0101781;
cdf7_3	0.0178117;
cdf7_4	0.0356234;
cdf7_5	0.0508906;
cdf7_6	0.0941476;
cdf7_7	0.173028;
cdf7_8	0.246819;
cdf7_9	0.351145;
cdf7_10	0.483461;
cdf7_11	0.628499;
cdf7_12	0.778626;
cdf7_13	0.857506;
cdf7_14	0.923664;
cdf7_15	0.941476;
cdf7_16	0.974555;
cdf7_17	0.982188;
cdf7_18	0.997455;
cdf7_19	1;
localMin8	-81.8686;
localMax8	104.137;
cdf8_0	0.00621118;
cdf8_1	0.015528;
cdf8_2	0.0465839;
cdf8_3	0.0776398;
cdf8_4	0.0993789;
cdf8_5	0.152174;
cdf8_6	0.26087;
cdf8_7	0.375776;
cdf8_8	0.512422;
cdf8_9	0.642857;
cdf8_10	0.717391;
cdf8_11	0.810559;
cdf8_12	0.86646;
cdf8_13	0.913043;
cdf8_14	0.931677;
cdf8_15	0.962733;
cdf8_16	0.97205;
cdf8_17	0.990683;
cdf8_18	0.996894;
cdf8_19	1;
localMin9	-71.1991;
localMax9	109.634;
cdf9_0	0.0209205;
cdf9_1	0.0376569;
cdf9_2	0.0627615;
cdf9_3	0.112971;
cdf9_4	0.150628;
cdf9_5	0.217573;
cdf9_6	0.297071;
cdf9_7	0.451883;
cdf9_8	0.627615;
cdf9_9	0.690377;
cdf9_10	0.828452;
cdf9_11	0.912134;
cdf9_12	0.945607;
cdf9_13	0.974895;
cdf9_14	0.991632;
cdf9_15	0.995816;
cdf9_16	0.995816;
cdf9_17	0.995816;
cdf9_18	0.995816;
cdf9_19	1;
localMin10	-66.1664;
localMax10	70.5968;
cdf10_0	0.0121212;
cdf10_1	0.0363636;
cdf10_2	0.0666667;
cdf10_3	0.10303;
cdf10_4	0.133333;
cdf10_5	0.181818;
cdf10_6	0.248485;
cdf10_7	0.345455;
cdf10_8	0.454545;
cdf10_9	0.545455;
cdf10_10	0.612121;
cdf10_11	0.70303;
cdf10_12	0.769697;
cdf10_13	0.806061;
cdf10_14	0.866667;
cdf10_15	0.927273;
cdf10_16	0.963636;
cdf10_17	0.981818;
cdf10_18	0.987879;
cdf10_19	1;
localMin11	-70.9627;
localMax11	60.303;
cdf11_0	0.0107527;
cdf11_1	0.0107527;
cdf11_2	0.0215054;
cdf11_3	0.0537634;
cdf11_4	0.0967742;
cdf11_5	0.139785;
cdf11_6	0.172043;
cdf11_7	0.258065;
cdf11_8	0.333333;
cdf11_9	0.408602;
cdf11_10	0.516129;
cdf11_11	0.612903;
cdf11_12	0.677419;
cdf11_13	0.774194;
cdf11_14	0.817204;
cdf11_15	0.849462;
cdf11_16	0.924731;
cdf11_17	0.967742;
cdf11_18	0.978495;
cdf11_19	1;
localMin12	-59.938;
localMax12	72.5382;
cdf12_0	0.0178571;
cdf12_1	0.0357143;
cdf12_2	0.0714286;
cdf12_3	0.107143;
cdf12_4	0.160714;
cdf12_5	0.196429;
cdf12_6	0.303571;
cdf12_7	0.446429;
cdf12_8	0.517857;
cdf12_9	0.625;
cdf12_10	0.75;
cdf12_11	0.785714;
cdf12_12	0.821429;
cdf12_13	0.839286;
cdf12_14	0.875;
cdf12_15	0.892857;
cdf12_16	0.892857;
cdf12_17	0.928571;
cdf12_18	0.982143;
cdf12_19	1;
localMin13	-53.8602;
localMax13	71.2992;
cdf13_0	0.0357143;
cdf13_1	0.0357143;
cdf13_2	0.0714286;
cdf13_3	0.0714286;
cdf13_4	0.142857;
cdf13_5	0.214286;
cdf13_6	0.321429;
cdf13_7	0.464286;
cdf13_8	0.535714;
cdf13_9	0.571429;
cdf13_10	0.714286;
cdf13_11	0.75;
cdf13_12	0.857143;
cdf13_13	0.892857;
cdf13_14	0.892857;
cdf13_15	0.928571;
cdf13_16	0.928571;
cdf13_17	0.928571;
cdf13_18	0.964286;
cdf13_19	1;
localMin14	-51.5116;
localMax14	43.6252;
cdf14_0	0.111111;
cdf14_1	0.222222;
cdf14_2	0.277778;
cdf14_3	0.277778;
cdf14_4	0.333333;
cdf14_5	0.388889;
cdf14_6	0.444444;
cdf14_7	0.5;
cdf14_8	0.555556;
cdf14_9	0.555556;
cdf14_10	0.666667;
cdf14_11	0.666667;
cdf14_12	0.722222;
cdf14_13	0.833333;
cdf14_14	0.888889;
cdf14_15	0.888889;
cdf14_16	0.888889;
cdf14_17	0.888889;
cdf14_18	0.944444;
cdf14_19	1;
localMin15	-40.9478;
localMax15	19.3554;
cdf15_0	0.285714;
cdf15_1	0.285714;
cdf15_2	0.428571;
cdf15_3	0.571429;
cdf15_4	0.571429;
cdf15_5	0.571429;
cdf15_6	0.714286;
cdf15_7	0.714286;
cdf15_8	0.714286;
cdf15_9	0.714286;
cdf15_10	0.714286;
cdf15_11	0.857143;
cdf15_12	0.857143;
cdf15_13	0.857143;
cdf15_14	0.857143;
cdf15_15	0.857143;
cdf15_16	0.857143;
cdf15_17	0.857143;
cdf15_18	0.857143;
cdf15_19	1;
localMin16	-25.208;
localMax16	-18.3778;
cdf16_0	0.5;
cdf16_1	0.5;
cdf16_2	0.5;
cdf16_3	0.5;
cdf16_4	0.5;
cdf16_5	0.5;
cdf16_6	0.5;
cdf16_7	0.5;
cdf16_8	0.5;
cdf16_9	0.5;
cdf16_10	0.5;
cdf16_11	0.5;
cdf16_12	0.5;
cdf16_13	0.5;
cdf16_14	0.5;
cdf16_15	0.5;
cdf16_16	0.5;
cdf16_17	0.5;
cdf16_18	0.5;
cdf16_19	0.5;
localMin17	-31.6345;
localMax17	-5.81271;
cdf17_0	0.5;
cdf17_1	0.5;
cdf17_2	0.5;
cdf17_3	0.5;
cdf17_4	0.5;
cdf17_5	0.5;
cdf17_6	0.5;
cdf17_7	0.5;
cdf17_8	0.5;
cdf17_9	0.5;
cdf17_10	0.5;
cdf17_11	0.5;
cdf17_12	0.5;
cdf17_13	0.5;
cdf17_14	0.5;
cdf17_15	0.5;
cdf17_16	0.5;
cdf17_17	0.5;
cdf17_18	0.5;
cdf17_19	0.5;
localMin18	100000;
localMax18	-100000;
cdf18_0	-nan;
cdf18_1	-nan;
cdf18_2	-nan;
cdf18_3	-nan;
cdf18_4	-nan;
cdf18_5	-nan;
cdf18_6	-nan;
cdf18_7	-nan;
cdf18_8	-nan;
cdf18_9	-nan;
cdf18_10	-nan;
cdf18_11	-nan;
cdf18_12	-nan;
cdf18_13	-nan;
cdf18_14	-nan;
cdf18_15	-nan;
cdf18_16	-nan;
cdf18_17	-nan;
cdf18_18	-nan;
cdf18_19	-nan;
localMin19	17.1102;
localMax19	17.1102;
cdf19_0	1;
cdf19_1	2;
cdf19_2	3;
cdf19_3	4;
cdf19_4	5;
cdf19_5	6;
cdf19_6	7;
cdf19_7	8;
cdf19_8	9;
cdf19_9	10;
cdf19_10	11;
cdf19_11	12;
cdf19_12	13;
cdf19_13	14;
cdf19_14	15;
cdf19_15	16;
cdf19_16	17;
cdf19_17	18;
cdf19_18	19;
cdf19_19	20;
