FoamFile
{
	version 2.0;
	format ascii;
	class dictionary;
	location "";
	object velRadCDFDict;
}
Div	20;
subDiv	20;

min_r	2.53003e-06;
max_r	0.000353607;
localMin0	-112.419;
localMax0	94.9104;
cdf0_0	0.00662252;
cdf0_1	0.00662252;
cdf0_2	0.00662252;
cdf0_3	0.0198675;
cdf0_4	0.0463576;
cdf0_5	0.0596026;
cdf0_6	0.0927152;
cdf0_7	0.15894;
cdf0_8	0.264901;
cdf0_9	0.350993;
cdf0_10	0.476821;
cdf0_11	0.596026;
cdf0_12	0.708609;
cdf0_13	0.781457;
cdf0_14	0.860927;
cdf0_15	0.907285;
cdf0_16	0.940397;
cdf0_17	0.966887;
cdf0_18	0.980132;
cdf0_19	1;
localMin1	-67.7812;
localMax1	92.9403;
cdf1_0	0.00884956;
cdf1_1	0.0235988;
cdf1_2	0.0501475;
cdf1_3	0.103245;
cdf1_4	0.150442;
cdf1_5	0.224189;
cdf1_6	0.286136;
cdf1_7	0.374631;
cdf1_8	0.457227;
cdf1_9	0.566372;
cdf1_10	0.648968;
cdf1_11	0.769912;
cdf1_12	0.834808;
cdf1_13	0.873156;
cdf1_14	0.905605;
cdf1_15	0.920354;
cdf1_16	0.943953;
cdf1_17	0.973451;
cdf1_18	0.982301;
cdf1_19	1;
localMin2	-96.1523;
localMax2	96.3727;
cdf2_0	0.00769231;
cdf2_1	0.00769231;
cdf2_2	0.0153846;
cdf2_3	0.0230769;
cdf2_4	0.0487179;
cdf2_5	0.0769231;
cdf2_6	0.135897;
cdf2_7	0.2;
cdf2_8	0.3;
cdf2_9	0.430769;
cdf2_10	0.533333;
cdf2_11	0.633333;
cdf2_12	0.738462;
cdf2_13	0.823077;
cdf2_14	0.894872;
cdf2_15	0.933333;
cdf2_16	0.976923;
cdf2_17	0.982051;
cdf2_18	0.992308;
cdf2_19	1;
localMin3	-118.387;
localMax3	116.259;
cdf3_0	0.00241546;
cdf3_1	0.00241546;
cdf3_2	0.00483092;
cdf3_3	0.0144928;
cdf3_4	0.02657;
cdf3_5	0.0386473;
cdf3_6	0.0845411;
cdf3_7	0.149758;
cdf3_8	0.263285;
cdf3_9	0.39372;
cdf3_10	0.533816;
cdf3_11	0.664251;
cdf3_12	0.751208;
cdf3_13	0.847826;
cdf3_14	0.908213;
cdf3_15	0.954106;
cdf3_16	0.978261;
cdf3_17	0.987923;
cdf3_18	0.995169;
cdf3_19	1;
localMin4	-99.4255;
localMax4	99.6602;
cdf4_0	0.00444444;
cdf4_1	0.00666667;
cdf4_2	0.00888889;
cdf4_3	0.0244444;
cdf4_4	0.0533333;
cdf4_5	0.0866667;
cdf4_6	0.153333;
cdf4_7	0.235556;
cdf4_8	0.333333;
cdf4_9	0.444444;
cdf4_10	0.566667;
cdf4_11	0.677778;
cdf4_12	0.777778;
cdf4_13	0.855556;
cdf4_14	0.908889;
cdf4_15	0.951111;
cdf4_16	0.975556;
cdf4_17	0.988889;
cdf4_18	0.997778;
cdf4_19	1;
localMin5	-82.9712;
localMax5	98.8045;
cdf5_0	0.00225734;
cdf5_1	0.00677201;
cdf5_2	0.0225734;
cdf5_3	0.0316027;
cdf5_4	0.0586907;
cdf5_5	0.108352;
cdf5_6	0.196388;
cdf5_7	0.300226;
cdf5_8	0.408578;
cdf5_9	0.525959;
cdf5_10	0.656885;
cdf5_11	0.75395;
cdf5_12	0.817156;
cdf5_13	0.889391;
cdf5_14	0.941309;
cdf5_15	0.963883;
cdf5_16	0.975169;
cdf5_17	0.984199;
cdf5_18	0.988713;
cdf5_19	1;
localMin6	-116.423;
localMax6	108.604;
cdf6_0	0.00242131;
cdf6_1	0.00242131;
cdf6_2	0.00242131;
cdf6_3	0.00242131;
cdf6_4	0.00484262;
cdf6_5	0.0121065;
cdf6_6	0.0508475;
cdf6_7	0.101695;
cdf6_8	0.169492;
cdf6_9	0.2954;
cdf6_10	0.493947;
cdf6_11	0.646489;
cdf6_12	0.745763;
cdf6_13	0.866828;
cdf6_14	0.915254;
cdf6_15	0.961259;
cdf6_16	0.975787;
cdf6_17	0.997579;
cdf6_18	0.997579;
cdf6_19	1;
localMin7	-64.5542;
localMax7	76.7324;
cdf7_0	0.00254453;
cdf7_1	0.0101781;
cdf7_2	0.0178117;
cdf7_3	0.0229008;
cdf7_4	0.0585242;
cdf7_5	0.0890585;
cdf7_6	0.13486;
cdf7_7	0.21883;
cdf7_8	0.323155;
cdf7_9	0.447837;
cdf7_10	0.544529;
cdf7_11	0.643766;
cdf7_12	0.720102;
cdf7_13	0.788804;
cdf7_14	0.826972;
cdf7_15	0.880407;
cdf7_16	0.910941;
cdf7_17	0.946565;
cdf7_18	0.984733;
cdf7_19	1;
localMin8	-41.0549;
localMax8	93.1421;
cdf8_0	0.00621118;
cdf8_1	0.0248447;
cdf8_2	0.0496894;
cdf8_3	0.10559;
cdf8_4	0.15528;
cdf8_5	0.220497;
cdf8_6	0.341615;
cdf8_7	0.419255;
cdf8_8	0.521739;
cdf8_9	0.627329;
cdf8_10	0.73913;
cdf8_11	0.819876;
cdf8_12	0.872671;
cdf8_13	0.909938;
cdf8_14	0.944099;
cdf8_15	0.965839;
cdf8_16	0.984472;
cdf8_17	0.996894;
cdf8_18	0.996894;
cdf8_19	1;
localMin9	-49.6291;
localMax9	91.2526;
cdf9_0	0.0083682;
cdf9_1	0.0167364;
cdf9_2	0.0292887;
cdf9_3	0.0376569;
cdf9_4	0.0753138;
cdf9_5	0.117155;
cdf9_6	0.154812;
cdf9_7	0.259414;
cdf9_8	0.364017;
cdf9_9	0.485356;
cdf9_10	0.60251;
cdf9_11	0.677824;
cdf9_12	0.782427;
cdf9_13	0.849372;
cdf9_14	0.92887;
cdf9_15	0.958159;
cdf9_16	0.974895;
cdf9_17	0.987448;
cdf9_18	0.995816;
cdf9_19	1;
localMin10	-27.0872;
localMax10	89.8944;
cdf10_0	0.0121212;
cdf10_1	0.030303;
cdf10_2	0.0484848;
cdf10_3	0.0848485;
cdf10_4	0.145455;
cdf10_5	0.2;
cdf10_6	0.260606;
cdf10_7	0.351515;
cdf10_8	0.442424;
cdf10_9	0.533333;
cdf10_10	0.642424;
cdf10_11	0.69697;
cdf10_12	0.769697;
cdf10_13	0.812121;
cdf10_14	0.878788;
cdf10_15	0.945455;
cdf10_16	0.975758;
cdf10_17	0.981818;
cdf10_18	0.987879;
cdf10_19	1;
localMin11	-25.9441;
localMax11	83.1838;
cdf11_0	0.0107527;
cdf11_1	0.0537634;
cdf11_2	0.0967742;
cdf11_3	0.11828;
cdf11_4	0.16129;
cdf11_5	0.193548;
cdf11_6	0.258065;
cdf11_7	0.27957;
cdf11_8	0.354839;
cdf11_9	0.483871;
cdf11_10	0.569892;
cdf11_11	0.645161;
cdf11_12	0.677419;
cdf11_13	0.752688;
cdf11_14	0.849462;
cdf11_15	0.903226;
cdf11_16	0.924731;
cdf11_17	0.956989;
cdf11_18	0.978495;
cdf11_19	1;
localMin12	-16.0419;
localMax12	75.8422;
cdf12_0	0.0535714;
cdf12_1	0.0714286;
cdf12_2	0.0892857;
cdf12_3	0.107143;
cdf12_4	0.196429;
cdf12_5	0.214286;
cdf12_6	0.267857;
cdf12_7	0.321429;
cdf12_8	0.339286;
cdf12_9	0.357143;
cdf12_10	0.446429;
cdf12_11	0.464286;
cdf12_12	0.553571;
cdf12_13	0.589286;
cdf12_14	0.696429;
cdf12_15	0.767857;
cdf12_16	0.857143;
cdf12_17	0.892857;
cdf12_18	0.928571;
cdf12_19	1;
localMin13	-3.57871;
localMax13	107.57;
cdf13_0	0.0357143;
cdf13_1	0.107143;
cdf13_2	0.107143;
cdf13_3	0.142857;
cdf13_4	0.142857;
cdf13_5	0.25;
cdf13_6	0.392857;
cdf13_7	0.5;
cdf13_8	0.571429;
cdf13_9	0.642857;
cdf13_10	0.642857;
cdf13_11	0.714286;
cdf13_12	0.785714;
cdf13_13	0.821429;
cdf13_14	0.821429;
cdf13_15	0.821429;
cdf13_16	0.857143;
cdf13_17	0.857143;
cdf13_18	0.964286;
cdf13_19	1;
localMin14	0.840165;
localMax14	71.7185;
cdf14_0	0.0555556;
cdf14_1	0.0555556;
cdf14_2	0.0555556;
cdf14_3	0.111111;
cdf14_4	0.111111;
cdf14_5	0.111111;
cdf14_6	0.111111;
cdf14_7	0.111111;
cdf14_8	0.166667;
cdf14_9	0.166667;
cdf14_10	0.166667;
cdf14_11	0.277778;
cdf14_12	0.277778;
cdf14_13	0.388889;
cdf14_14	0.555556;
cdf14_15	0.611111;
cdf14_16	0.777778;
cdf14_17	0.833333;
cdf14_18	0.888889;
cdf14_19	1;
localMin15	-0.824763;
localMax15	97.5918;
cdf15_0	0.142857;
cdf15_1	0.142857;
cdf15_2	0.285714;
cdf15_3	0.285714;
cdf15_4	0.285714;
cdf15_5	0.285714;
cdf15_6	0.428571;
cdf15_7	0.428571;
cdf15_8	0.428571;
cdf15_9	0.428571;
cdf15_10	0.428571;
cdf15_11	0.428571;
cdf15_12	0.571429;
cdf15_13	0.857143;
cdf15_14	0.857143;
cdf15_15	0.857143;
cdf15_16	0.857143;
cdf15_17	0.857143;
cdf15_18	0.857143;
cdf15_19	1;
localMin16	16.4582;
localMax16	47.5021;
cdf16_0	0.5;
cdf16_1	0.5;
cdf16_2	0.5;
cdf16_3	0.5;
cdf16_4	0.5;
cdf16_5	0.5;
cdf16_6	0.5;
cdf16_7	0.5;
cdf16_8	0.5;
cdf16_9	0.5;
cdf16_10	0.5;
cdf16_11	0.5;
cdf16_12	0.5;
cdf16_13	0.5;
cdf16_14	0.5;
cdf16_15	0.5;
cdf16_16	0.5;
cdf16_17	0.5;
cdf16_18	0.5;
cdf16_19	1;
localMin17	59.5046;
localMax17	70.2942;
cdf17_0	0.5;
cdf17_1	0.5;
cdf17_2	0.5;
cdf17_3	0.5;
cdf17_4	0.5;
cdf17_5	0.5;
cdf17_6	0.5;
cdf17_7	0.5;
cdf17_8	0.5;
cdf17_9	0.5;
cdf17_10	0.5;
cdf17_11	0.5;
cdf17_12	0.5;
cdf17_13	0.5;
cdf17_14	0.5;
cdf17_15	0.5;
cdf17_16	0.5;
cdf17_17	0.5;
cdf17_18	0.5;
cdf17_19	1;
localMin18	100000;
localMax18	-100000;
cdf18_0	-nan;
cdf18_1	-nan;
cdf18_2	-nan;
cdf18_3	-nan;
cdf18_4	-nan;
cdf18_5	-nan;
cdf18_6	-nan;
cdf18_7	-nan;
cdf18_8	-nan;
cdf18_9	-nan;
cdf18_10	-nan;
cdf18_11	-nan;
cdf18_12	-nan;
cdf18_13	-nan;
cdf18_14	-nan;
cdf18_15	-nan;
cdf18_16	-nan;
cdf18_17	-nan;
cdf18_18	-nan;
cdf18_19	-nan;
localMin19	58.7521;
localMax19	58.7521;
cdf19_0	1;
cdf19_1	2;
cdf19_2	3;
cdf19_3	4;
cdf19_4	5;
cdf19_5	6;
cdf19_6	7;
cdf19_7	8;
cdf19_8	9;
cdf19_9	10;
cdf19_10	11;
cdf19_11	12;
cdf19_12	13;
cdf19_13	14;
cdf19_14	15;
cdf19_15	16;
cdf19_16	17;
cdf19_17	18;
cdf19_18	19;
cdf19_19	20;
