FoamFile
{
	version 2.0;
	format ascii;
	class dictionary;
	location "";
	object velXCDFDict;
}
Div	20;
subDiv	20;

min_r	2.53003e-06;
max_r	0.000353607;
localMin0	241.84;
localMax0	483.92;
cdf0_0	0.013245;
cdf0_1	0.0198675;
cdf0_2	0.0264901;
cdf0_3	0.0463576;
cdf0_4	0.0794702;
cdf0_5	0.119205;
cdf0_6	0.165563;
cdf0_7	0.198675;
cdf0_8	0.298013;
cdf0_9	0.384106;
cdf0_10	0.562914;
cdf0_11	0.708609;
cdf0_12	0.794702;
cdf0_13	0.887417;
cdf0_14	0.913907;
cdf0_15	0.933775;
cdf0_16	0.986755;
cdf0_17	0.986755;
cdf0_18	0.986755;
cdf0_19	1;
localMin1	219.254;
localMax1	457.228;
cdf1_0	0.00589971;
cdf1_1	0.00884956;
cdf1_2	0.00884956;
cdf1_3	0.0176991;
cdf1_4	0.0324484;
cdf1_5	0.079646;
cdf1_6	0.123894;
cdf1_7	0.159292;
cdf1_8	0.212389;
cdf1_9	0.292035;
cdf1_10	0.359882;
cdf1_11	0.469027;
cdf1_12	0.557522;
cdf1_13	0.634218;
cdf1_14	0.737463;
cdf1_15	0.825959;
cdf1_16	0.905605;
cdf1_17	0.961652;
cdf1_18	0.979351;
cdf1_19	1;
localMin2	199.67;
localMax2	458.29;
cdf2_0	0.0128205;
cdf2_1	0.0128205;
cdf2_2	0.0205128;
cdf2_3	0.0333333;
cdf2_4	0.0538462;
cdf2_5	0.0769231;
cdf2_6	0.1;
cdf2_7	0.130769;
cdf2_8	0.2;
cdf2_9	0.282051;
cdf2_10	0.402564;
cdf2_11	0.497436;
cdf2_12	0.602564;
cdf2_13	0.730769;
cdf2_14	0.835897;
cdf2_15	0.912821;
cdf2_16	0.946154;
cdf2_17	0.976923;
cdf2_18	0.989744;
cdf2_19	1;
localMin3	173.531;
localMax3	460.348;
cdf3_0	0.00241546;
cdf3_1	0.00966184;
cdf3_2	0.0144928;
cdf3_3	0.0241546;
cdf3_4	0.0507246;
cdf3_5	0.0748792;
cdf3_6	0.108696;
cdf3_7	0.164251;
cdf3_8	0.263285;
cdf3_9	0.374396;
cdf3_10	0.490338;
cdf3_11	0.60628;
cdf3_12	0.683575;
cdf3_13	0.797101;
cdf3_14	0.850242;
cdf3_15	0.913043;
cdf3_16	0.961353;
cdf3_17	0.983092;
cdf3_18	0.992754;
cdf3_19	1;
localMin4	166.174;
localMax4	481.399;
cdf4_0	0.00222222;
cdf4_1	0.0111111;
cdf4_2	0.0288889;
cdf4_3	0.0444444;
cdf4_4	0.0955556;
cdf4_5	0.153333;
cdf4_6	0.22;
cdf4_7	0.291111;
cdf4_8	0.382222;
cdf4_9	0.52;
cdf4_10	0.662222;
cdf4_11	0.748889;
cdf4_12	0.808889;
cdf4_13	0.877778;
cdf4_14	0.92;
cdf4_15	0.962222;
cdf4_16	0.977778;
cdf4_17	0.988889;
cdf4_18	0.995556;
cdf4_19	1;
localMin5	131.084;
localMax5	463.633;
cdf5_0	0.00677201;
cdf5_1	0.0112867;
cdf5_2	0.0248307;
cdf5_3	0.0361174;
cdf5_4	0.0586907;
cdf5_5	0.0880361;
cdf5_6	0.128668;
cdf5_7	0.196388;
cdf5_8	0.284424;
cdf5_9	0.390519;
cdf5_10	0.530474;
cdf5_11	0.654628;
cdf5_12	0.756208;
cdf5_13	0.832957;
cdf5_14	0.914221;
cdf5_15	0.954853;
cdf5_16	0.981941;
cdf5_17	0.990971;
cdf5_18	0.995485;
cdf5_19	1;
localMin6	130.245;
localMax6	445.588;
cdf6_0	0.00484262;
cdf6_1	0.00726392;
cdf6_2	0.0193705;
cdf6_3	0.0387409;
cdf6_4	0.0605327;
cdf6_5	0.113801;
cdf6_6	0.184019;
cdf6_7	0.27845;
cdf6_8	0.37046;
cdf6_9	0.493947;
cdf6_10	0.583535;
cdf6_11	0.687651;
cdf6_12	0.784504;
cdf6_13	0.871671;
cdf6_14	0.932203;
cdf6_15	0.953995;
cdf6_16	0.990315;
cdf6_17	0.992736;
cdf6_18	0.995157;
cdf6_19	1;
localMin7	120.525;
localMax7	399.554;
cdf7_0	0.0101781;
cdf7_1	0.0127226;
cdf7_2	0.0254453;
cdf7_3	0.0483461;
cdf7_4	0.0763359;
cdf7_5	0.124682;
cdf7_6	0.173028;
cdf7_7	0.226463;
cdf7_8	0.310433;
cdf7_9	0.427481;
cdf7_10	0.513995;
cdf7_11	0.618321;
cdf7_12	0.704835;
cdf7_13	0.776081;
cdf7_14	0.844784;
cdf7_15	0.895674;
cdf7_16	0.931298;
cdf7_17	0.959288;
cdf7_18	0.979644;
cdf7_19	1;
localMin8	106.05;
localMax8	396.353;
cdf8_0	0.00310559;
cdf8_1	0.00931677;
cdf8_2	0.0124224;
cdf8_3	0.0248447;
cdf8_4	0.0590062;
cdf8_5	0.0993789;
cdf8_6	0.152174;
cdf8_7	0.26087;
cdf8_8	0.31677;
cdf8_9	0.434783;
cdf8_10	0.540373;
cdf8_11	0.63354;
cdf8_12	0.736025;
cdf8_13	0.807453;
cdf8_14	0.86646;
cdf8_15	0.916149;
cdf8_16	0.940994;
cdf8_17	0.962733;
cdf8_18	0.990683;
cdf8_19	1;
localMin9	122.405;
localMax9	373.945;
cdf9_0	0.0041841;
cdf9_1	0.0460251;
cdf9_2	0.0669456;
cdf9_3	0.0962343;
cdf9_4	0.154812;
cdf9_5	0.192469;
cdf9_6	0.238494;
cdf9_7	0.359833;
cdf9_8	0.426778;
cdf9_9	0.523013;
cdf9_10	0.65272;
cdf9_11	0.723849;
cdf9_12	0.8159;
cdf9_13	0.878661;
cdf9_14	0.920502;
cdf9_15	0.945607;
cdf9_16	0.970711;
cdf9_17	0.987448;
cdf9_18	0.991632;
cdf9_19	1;
localMin10	115.648;
localMax10	342.734;
cdf10_0	0.0181818;
cdf10_1	0.030303;
cdf10_2	0.0484848;
cdf10_3	0.0787879;
cdf10_4	0.133333;
cdf10_5	0.151515;
cdf10_6	0.193939;
cdf10_7	0.254545;
cdf10_8	0.381818;
cdf10_9	0.454545;
cdf10_10	0.521212;
cdf10_11	0.593939;
cdf10_12	0.672727;
cdf10_13	0.757576;
cdf10_14	0.836364;
cdf10_15	0.89697;
cdf10_16	0.939394;
cdf10_17	0.963636;
cdf10_18	0.969697;
cdf10_19	1;
localMin11	106.402;
localMax11	353.512;
cdf11_0	0.0107527;
cdf11_1	0.0322581;
cdf11_2	0.0537634;
cdf11_3	0.0860215;
cdf11_4	0.129032;
cdf11_5	0.236559;
cdf11_6	0.333333;
cdf11_7	0.397849;
cdf11_8	0.494624;
cdf11_9	0.580645;
cdf11_10	0.677419;
cdf11_11	0.763441;
cdf11_12	0.827957;
cdf11_13	0.892473;
cdf11_14	0.913978;
cdf11_15	0.956989;
cdf11_16	0.956989;
cdf11_17	0.967742;
cdf11_18	0.978495;
cdf11_19	1;
localMin12	129.895;
localMax12	309.733;
cdf12_0	0.0178571;
cdf12_1	0.0357143;
cdf12_2	0.0714286;
cdf12_3	0.125;
cdf12_4	0.178571;
cdf12_5	0.232143;
cdf12_6	0.375;
cdf12_7	0.446429;
cdf12_8	0.553571;
cdf12_9	0.625;
cdf12_10	0.660714;
cdf12_11	0.714286;
cdf12_12	0.803571;
cdf12_13	0.821429;
cdf12_14	0.875;
cdf12_15	0.875;
cdf12_16	0.928571;
cdf12_17	0.964286;
cdf12_18	0.964286;
cdf12_19	1;
localMin13	131.415;
localMax13	312.779;
cdf13_0	0.0357143;
cdf13_1	0.0357143;
cdf13_2	0.107143;
cdf13_3	0.142857;
cdf13_4	0.178571;
cdf13_5	0.178571;
cdf13_6	0.214286;
cdf13_7	0.285714;
cdf13_8	0.464286;
cdf13_9	0.571429;
cdf13_10	0.678571;
cdf13_11	0.714286;
cdf13_12	0.785714;
cdf13_13	0.785714;
cdf13_14	0.821429;
cdf13_15	0.821429;
cdf13_16	0.857143;
cdf13_17	0.964286;
cdf13_18	0.964286;
cdf13_19	1;
localMin14	135.746;
localMax14	271.949;
cdf14_0	0.0555556;
cdf14_1	0.111111;
cdf14_2	0.111111;
cdf14_3	0.111111;
cdf14_4	0.166667;
cdf14_5	0.166667;
cdf14_6	0.166667;
cdf14_7	0.333333;
cdf14_8	0.444444;
cdf14_9	0.555556;
cdf14_10	0.611111;
cdf14_11	0.611111;
cdf14_12	0.611111;
cdf14_13	0.666667;
cdf14_14	0.722222;
cdf14_15	0.888889;
cdf14_16	0.888889;
cdf14_17	0.944444;
cdf14_18	0.944444;
cdf14_19	1;
localMin15	166.368;
localMax15	269.503;
cdf15_0	0.285714;
cdf15_1	0.285714;
cdf15_2	0.428571;
cdf15_3	0.571429;
cdf15_4	0.571429;
cdf15_5	0.571429;
cdf15_6	0.571429;
cdf15_7	0.571429;
cdf15_8	0.571429;
cdf15_9	0.571429;
cdf15_10	0.714286;
cdf15_11	0.714286;
cdf15_12	0.857143;
cdf15_13	0.857143;
cdf15_14	0.857143;
cdf15_15	0.857143;
cdf15_16	0.857143;
cdf15_17	0.857143;
cdf15_18	0.857143;
cdf15_19	1;
localMin16	124.315;
localMax16	210.696;
cdf16_0	0.5;
cdf16_1	0.5;
cdf16_2	0.5;
cdf16_3	0.5;
cdf16_4	0.5;
cdf16_5	0.5;
cdf16_6	0.5;
cdf16_7	0.5;
cdf16_8	0.5;
cdf16_9	0.5;
cdf16_10	0.5;
cdf16_11	0.5;
cdf16_12	0.5;
cdf16_13	0.5;
cdf16_14	0.5;
cdf16_15	0.5;
cdf16_16	0.5;
cdf16_17	0.5;
cdf16_18	0.5;
cdf16_19	1;
localMin17	188.618;
localMax17	199.037;
cdf17_0	0.5;
cdf17_1	0.5;
cdf17_2	0.5;
cdf17_3	0.5;
cdf17_4	0.5;
cdf17_5	0.5;
cdf17_6	0.5;
cdf17_7	0.5;
cdf17_8	0.5;
cdf17_9	0.5;
cdf17_10	0.5;
cdf17_11	0.5;
cdf17_12	0.5;
cdf17_13	0.5;
cdf17_14	0.5;
cdf17_15	0.5;
cdf17_16	0.5;
cdf17_17	0.5;
cdf17_18	0.5;
cdf17_19	1;
localMin18	100000;
localMax18	-100000;
cdf18_0	-nan;
cdf18_1	-nan;
cdf18_2	-nan;
cdf18_3	-nan;
cdf18_4	-nan;
cdf18_5	-nan;
cdf18_6	-nan;
cdf18_7	-nan;
cdf18_8	-nan;
cdf18_9	-nan;
cdf18_10	-nan;
cdf18_11	-nan;
cdf18_12	-nan;
cdf18_13	-nan;
cdf18_14	-nan;
cdf18_15	-nan;
cdf18_16	-nan;
cdf18_17	-nan;
cdf18_18	-nan;
cdf18_19	-nan;
localMin19	144.086;
localMax19	144.086;
cdf19_0	1;
cdf19_1	2;
cdf19_2	3;
cdf19_3	4;
cdf19_4	5;
cdf19_5	6;
cdf19_6	7;
cdf19_7	8;
cdf19_8	9;
cdf19_9	10;
cdf19_10	11;
cdf19_11	12;
cdf19_12	13;
cdf19_13	14;
cdf19_14	15;
cdf19_15	16;
cdf19_16	17;
cdf19_17	18;
cdf19_18	19;
cdf19_19	20;
