FoamFile
{
	version 2.0;
	format ascii;
	class dictionary;
	location "";
	object velYCDFDict;
}
Div	20;
subDiv	20;

min_r	2.53003e-06;
max_r	0.000353607;
localMin0	-77.6526;
localMax0	136.446;
cdf0_0	0.0198675;
cdf0_1	0.0264901;
cdf0_2	0.0529801;
cdf0_3	0.10596;
cdf0_4	0.178808;
cdf0_5	0.278146;
cdf0_6	0.377483;
cdf0_7	0.503311;
cdf0_8	0.602649;
cdf0_9	0.754967;
cdf0_10	0.81457;
cdf0_11	0.86755;
cdf0_12	0.92053;
cdf0_13	0.960265;
cdf0_14	0.97351;
cdf0_15	0.980132;
cdf0_16	0.980132;
cdf0_17	0.986755;
cdf0_18	0.993377;
cdf0_19	1;
localMin1	-93.2281;
localMax1	104.937;
cdf1_0	0.00294985;
cdf1_1	0.00589971;
cdf1_2	0.00884956;
cdf1_3	0.0294985;
cdf1_4	0.0619469;
cdf1_5	0.117994;
cdf1_6	0.185841;
cdf1_7	0.283186;
cdf1_8	0.39528;
cdf1_9	0.530973;
cdf1_10	0.637168;
cdf1_11	0.740413;
cdf1_12	0.843658;
cdf1_13	0.887906;
cdf1_14	0.923304;
cdf1_15	0.949853;
cdf1_16	0.979351;
cdf1_17	0.99115;
cdf1_18	0.99115;
cdf1_19	1;
localMin2	-100.954;
localMax2	104.803;
cdf2_0	0.00512821;
cdf2_1	0.00512821;
cdf2_2	0.0205128;
cdf2_3	0.0333333;
cdf2_4	0.0564103;
cdf2_5	0.117949;
cdf2_6	0.187179;
cdf2_7	0.251282;
cdf2_8	0.323077;
cdf2_9	0.464103;
cdf2_10	0.615385;
cdf2_11	0.738462;
cdf2_12	0.833333;
cdf2_13	0.889744;
cdf2_14	0.935897;
cdf2_15	0.969231;
cdf2_16	0.984615;
cdf2_17	0.989744;
cdf2_18	0.994872;
cdf2_19	1;
localMin3	-105.027;
localMax3	117.235;
cdf3_0	0.00241546;
cdf3_1	0.00966184;
cdf3_2	0.0217391;
cdf3_3	0.0386473;
cdf3_4	0.057971;
cdf3_5	0.103865;
cdf3_6	0.178744;
cdf3_7	0.280193;
cdf3_8	0.408213;
cdf3_9	0.536232;
cdf3_10	0.666667;
cdf3_11	0.777778;
cdf3_12	0.869565;
cdf3_13	0.925121;
cdf3_14	0.956522;
cdf3_15	0.971014;
cdf3_16	0.985507;
cdf3_17	0.990338;
cdf3_18	0.997585;
cdf3_19	1;
localMin4	-102.186;
localMax4	116.3;
cdf4_0	0.00444444;
cdf4_1	0.0133333;
cdf4_2	0.0177778;
cdf4_3	0.0311111;
cdf4_4	0.0733333;
cdf4_5	0.117778;
cdf4_6	0.211111;
cdf4_7	0.322222;
cdf4_8	0.435556;
cdf4_9	0.562222;
cdf4_10	0.697778;
cdf4_11	0.813333;
cdf4_12	0.888889;
cdf4_13	0.924444;
cdf4_14	0.96;
cdf4_15	0.986667;
cdf4_16	0.993333;
cdf4_17	0.993333;
cdf4_18	0.997778;
cdf4_19	1;
localMin5	-114.11;
localMax5	95.1152;
cdf5_0	0.00225734;
cdf5_1	0.00225734;
cdf5_2	0.00225734;
cdf5_3	0.00451467;
cdf5_4	0.0180587;
cdf5_5	0.0428894;
cdf5_6	0.0835214;
cdf5_7	0.137698;
cdf5_8	0.232506;
cdf5_9	0.322799;
cdf5_10	0.501129;
cdf5_11	0.638826;
cdf5_12	0.749436;
cdf5_13	0.8307;
cdf5_14	0.902935;
cdf5_15	0.943567;
cdf5_16	0.963883;
cdf5_17	0.986456;
cdf5_18	0.993228;
cdf5_19	1;
localMin6	-102.71;
localMax6	116.571;
cdf6_0	0.00484262;
cdf6_1	0.00726392;
cdf6_2	0.0169492;
cdf6_3	0.0338983;
cdf6_4	0.062954;
cdf6_5	0.106538;
cdf6_6	0.159806;
cdf6_7	0.271186;
cdf6_8	0.416465;
cdf6_9	0.539952;
cdf6_10	0.668281;
cdf6_11	0.799031;
cdf6_12	0.893462;
cdf6_13	0.929782;
cdf6_14	0.96368;
cdf6_15	0.978208;
cdf6_16	0.990315;
cdf6_17	0.992736;
cdf6_18	0.997579;
cdf6_19	1;
localMin7	-79.3699;
localMax7	93.9256;
cdf7_0	0.00763359;
cdf7_1	0.0178117;
cdf7_2	0.0381679;
cdf7_3	0.0610687;
cdf7_4	0.104326;
cdf7_5	0.160305;
cdf7_6	0.231552;
cdf7_7	0.358779;
cdf7_8	0.483461;
cdf7_9	0.597964;
cdf7_10	0.687023;
cdf7_11	0.78117;
cdf7_12	0.867684;
cdf7_13	0.916031;
cdf7_14	0.946565;
cdf7_15	0.961832;
cdf7_16	0.987277;
cdf7_17	0.997455;
cdf7_18	0.997455;
cdf7_19	1;
localMin8	-89.6003;
localMax8	113.363;
cdf8_0	0.0124224;
cdf8_1	0.015528;
cdf8_2	0.0279503;
cdf8_3	0.0465839;
cdf8_4	0.0869565;
cdf8_5	0.136646;
cdf8_6	0.232919;
cdf8_7	0.388199;
cdf8_8	0.534161;
cdf8_9	0.689441;
cdf8_10	0.807453;
cdf8_11	0.888199;
cdf8_12	0.916149;
cdf8_13	0.947205;
cdf8_14	0.962733;
cdf8_15	0.978261;
cdf8_16	0.987578;
cdf8_17	0.993789;
cdf8_18	0.993789;
cdf8_19	1;
localMin9	-85.2723;
localMax9	87.4347;
cdf9_0	0.0041841;
cdf9_1	0.0041841;
cdf9_2	0.0209205;
cdf9_3	0.0292887;
cdf9_4	0.0962343;
cdf9_5	0.138075;
cdf9_6	0.196653;
cdf9_7	0.284519;
cdf9_8	0.41841;
cdf9_9	0.539749;
cdf9_10	0.677824;
cdf9_11	0.757322;
cdf9_12	0.845188;
cdf9_13	0.90795;
cdf9_14	0.941423;
cdf9_15	0.966527;
cdf9_16	0.979079;
cdf9_17	0.991632;
cdf9_18	0.995816;
cdf9_19	1;
localMin10	-79.25;
localMax10	101.696;
cdf10_0	0.0181818;
cdf10_1	0.030303;
cdf10_2	0.0484848;
cdf10_3	0.127273;
cdf10_4	0.181818;
cdf10_5	0.230303;
cdf10_6	0.266667;
cdf10_7	0.351515;
cdf10_8	0.472727;
cdf10_9	0.6;
cdf10_10	0.70303;
cdf10_11	0.793939;
cdf10_12	0.860606;
cdf10_13	0.909091;
cdf10_14	0.939394;
cdf10_15	0.957576;
cdf10_16	0.969697;
cdf10_17	0.981818;
cdf10_18	0.993939;
cdf10_19	1;
localMin11	-87.9021;
localMax11	57.745;
cdf11_0	0.0215054;
cdf11_1	0.0215054;
cdf11_2	0.0322581;
cdf11_3	0.0645161;
cdf11_4	0.0645161;
cdf11_5	0.11828;
cdf11_6	0.139785;
cdf11_7	0.193548;
cdf11_8	0.322581;
cdf11_9	0.387097;
cdf11_10	0.451613;
cdf11_11	0.55914;
cdf11_12	0.634409;
cdf11_13	0.688172;
cdf11_14	0.731183;
cdf11_15	0.795699;
cdf11_16	0.83871;
cdf11_17	0.870968;
cdf11_18	0.903226;
cdf11_19	1;
localMin12	-60.2802;
localMax12	94.4379;
cdf12_0	0.0357143;
cdf12_1	0.0535714;
cdf12_2	0.107143;
cdf12_3	0.125;
cdf12_4	0.160714;
cdf12_5	0.214286;
cdf12_6	0.285714;
cdf12_7	0.392857;
cdf12_8	0.428571;
cdf12_9	0.535714;
cdf12_10	0.607143;
cdf12_11	0.678571;
cdf12_12	0.75;
cdf12_13	0.785714;
cdf12_14	0.875;
cdf12_15	0.928571;
cdf12_16	0.928571;
cdf12_17	0.964286;
cdf12_18	0.964286;
cdf12_19	1;
localMin13	-81.8367;
localMax13	99.8274;
cdf13_0	0.142857;
cdf13_1	0.142857;
cdf13_2	0.178571;
cdf13_3	0.178571;
cdf13_4	0.178571;
cdf13_5	0.25;
cdf13_6	0.321429;
cdf13_7	0.321429;
cdf13_8	0.392857;
cdf13_9	0.5;
cdf13_10	0.571429;
cdf13_11	0.714286;
cdf13_12	0.785714;
cdf13_13	0.785714;
cdf13_14	0.821429;
cdf13_15	0.857143;
cdf13_16	0.892857;
cdf13_17	0.892857;
cdf13_18	0.928571;
cdf13_19	1;
localMin14	-57.7435;
localMax14	71.1725;
cdf14_0	0.111111;
cdf14_1	0.222222;
cdf14_2	0.222222;
cdf14_3	0.277778;
cdf14_4	0.388889;
cdf14_5	0.388889;
cdf14_6	0.444444;
cdf14_7	0.5;
cdf14_8	0.611111;
cdf14_9	0.611111;
cdf14_10	0.611111;
cdf14_11	0.611111;
cdf14_12	0.611111;
cdf14_13	0.611111;
cdf14_14	0.611111;
cdf14_15	0.666667;
cdf14_16	0.777778;
cdf14_17	0.833333;
cdf14_18	0.888889;
cdf14_19	1;
localMin15	-102.107;
localMax15	62.0569;
cdf15_0	0.142857;
cdf15_1	0.142857;
cdf15_2	0.142857;
cdf15_3	0.142857;
cdf15_4	0.142857;
cdf15_5	0.142857;
cdf15_6	0.285714;
cdf15_7	0.285714;
cdf15_8	0.428571;
cdf15_9	0.428571;
cdf15_10	0.428571;
cdf15_11	0.571429;
cdf15_12	0.571429;
cdf15_13	0.571429;
cdf15_14	0.714286;
cdf15_15	0.714286;
cdf15_16	0.714286;
cdf15_17	0.714286;
cdf15_18	0.714286;
cdf15_19	1;
localMin16	-23.9288;
localMax16	44.6969;
cdf16_0	0.5;
cdf16_1	0.5;
cdf16_2	0.5;
cdf16_3	0.5;
cdf16_4	0.5;
cdf16_5	0.5;
cdf16_6	0.5;
cdf16_7	0.5;
cdf16_8	0.5;
cdf16_9	0.5;
cdf16_10	0.5;
cdf16_11	0.5;
cdf16_12	0.5;
cdf16_13	0.5;
cdf16_14	0.5;
cdf16_15	0.5;
cdf16_16	0.5;
cdf16_17	0.5;
cdf16_18	0.5;
cdf16_19	1;
localMin17	56.266;
localMax17	58.2368;
cdf17_0	0.5;
cdf17_1	0.5;
cdf17_2	0.5;
cdf17_3	0.5;
cdf17_4	0.5;
cdf17_5	0.5;
cdf17_6	0.5;
cdf17_7	0.5;
cdf17_8	0.5;
cdf17_9	0.5;
cdf17_10	0.5;
cdf17_11	0.5;
cdf17_12	0.5;
cdf17_13	0.5;
cdf17_14	0.5;
cdf17_15	0.5;
cdf17_16	0.5;
cdf17_17	0.5;
cdf17_18	0.5;
cdf17_19	1;
localMin18	100000;
localMax18	-100000;
cdf18_0	-nan;
cdf18_1	-nan;
cdf18_2	-nan;
cdf18_3	-nan;
cdf18_4	-nan;
cdf18_5	-nan;
cdf18_6	-nan;
cdf18_7	-nan;
cdf18_8	-nan;
cdf18_9	-nan;
cdf18_10	-nan;
cdf18_11	-nan;
cdf18_12	-nan;
cdf18_13	-nan;
cdf18_14	-nan;
cdf18_15	-nan;
cdf18_16	-nan;
cdf18_17	-nan;
cdf18_18	-nan;
cdf18_19	-nan;
localMin19	-49.2109;
localMax19	-49.2109;
cdf19_0	0;
cdf19_1	0;
cdf19_2	0;
cdf19_3	0;
cdf19_4	0;
cdf19_5	0;
cdf19_6	0;
cdf19_7	0;
cdf19_8	0;
cdf19_9	0;
cdf19_10	0;
cdf19_11	0;
cdf19_12	0;
cdf19_13	0;
cdf19_14	0;
cdf19_15	0;
cdf19_16	0;
cdf19_17	0;
cdf19_18	0;
cdf19_19	0;
