FoamFile
{
	version 2.0;
	format ascii;
	class dictionary;
	location "";
	object velZCDFDict;
}
Div	20;
subDiv	20;

min_r	2.53003e-06;
max_r	0.000353607;
localMin0	-84.7119;
localMax0	92.9148;
cdf0_0	0.00662252;
cdf0_1	0.013245;
cdf0_2	0.0596026;
cdf0_3	0.0927152;
cdf0_4	0.139073;
cdf0_5	0.198675;
cdf0_6	0.271523;
cdf0_7	0.403974;
cdf0_8	0.536424;
cdf0_9	0.649007;
cdf0_10	0.701987;
cdf0_11	0.781457;
cdf0_12	0.887417;
cdf0_13	0.92053;
cdf0_14	0.966887;
cdf0_15	0.986755;
cdf0_16	0.993377;
cdf0_17	0.993377;
cdf0_18	0.993377;
cdf0_19	1;
localMin1	-89.0101;
localMax1	95.1319;
cdf1_0	0.0147493;
cdf1_1	0.0294985;
cdf1_2	0.0501475;
cdf1_3	0.0825959;
cdf1_4	0.126844;
cdf1_5	0.174041;
cdf1_6	0.235988;
cdf1_7	0.315634;
cdf1_8	0.40708;
cdf1_9	0.489676;
cdf1_10	0.643068;
cdf1_11	0.746313;
cdf1_12	0.852507;
cdf1_13	0.908555;
cdf1_14	0.955752;
cdf1_15	0.985251;
cdf1_16	0.9941;
cdf1_17	0.99705;
cdf1_18	0.99705;
cdf1_19	1;
localMin2	-97.5166;
localMax2	104.615;
cdf2_0	0.0102564;
cdf2_1	0.0153846;
cdf2_2	0.025641;
cdf2_3	0.0487179;
cdf2_4	0.0897436;
cdf2_5	0.146154;
cdf2_6	0.205128;
cdf2_7	0.302564;
cdf2_8	0.389744;
cdf2_9	0.512821;
cdf2_10	0.633333;
cdf2_11	0.74359;
cdf2_12	0.835897;
cdf2_13	0.910256;
cdf2_14	0.958974;
cdf2_15	0.976923;
cdf2_16	0.984615;
cdf2_17	0.994872;
cdf2_18	0.994872;
cdf2_19	1;
localMin3	-119.944;
localMax3	114.576;
cdf3_0	0.00241546;
cdf3_1	0.00241546;
cdf3_2	0.00724638;
cdf3_3	0.02657;
cdf3_4	0.0555556;
cdf3_5	0.101449;
cdf3_6	0.147343;
cdf3_7	0.210145;
cdf3_8	0.306763;
cdf3_9	0.403382;
cdf3_10	0.57971;
cdf3_11	0.719807;
cdf3_12	0.809179;
cdf3_13	0.874396;
cdf3_14	0.915459;
cdf3_15	0.94686;
cdf3_16	0.983092;
cdf3_17	0.987923;
cdf3_18	0.997585;
cdf3_19	1;
localMin4	-90.04;
localMax4	82.9073;
cdf4_0	0.00222222;
cdf4_1	0.00666667;
cdf4_2	0.0266667;
cdf4_3	0.0555556;
cdf4_4	0.0777778;
cdf4_5	0.135556;
cdf4_6	0.188889;
cdf4_7	0.257778;
cdf4_8	0.344444;
cdf4_9	0.453333;
cdf4_10	0.553333;
cdf4_11	0.664444;
cdf4_12	0.764444;
cdf4_13	0.846667;
cdf4_14	0.897778;
cdf4_15	0.942222;
cdf4_16	0.975556;
cdf4_17	0.988889;
cdf4_18	0.997778;
cdf4_19	1;
localMin5	-89.6597;
localMax5	101.186;
cdf5_0	0.00677201;
cdf5_1	0.0112867;
cdf5_2	0.0248307;
cdf5_3	0.0541761;
cdf5_4	0.108352;
cdf5_5	0.1693;
cdf5_6	0.250564;
cdf5_7	0.365688;
cdf5_8	0.496614;
cdf5_9	0.61851;
cdf5_10	0.733634;
cdf5_11	0.835214;
cdf5_12	0.891648;
cdf5_13	0.939052;
cdf5_14	0.968397;
cdf5_15	0.990971;
cdf5_16	0.993228;
cdf5_17	0.995485;
cdf5_18	0.997743;
cdf5_19	1;
localMin6	-102.782;
localMax6	91.5892;
cdf6_0	0.00968523;
cdf6_1	0.00968523;
cdf6_2	0.0145278;
cdf6_3	0.0338983;
cdf6_4	0.0484262;
cdf6_5	0.0823245;
cdf6_6	0.169492;
cdf6_7	0.234867;
cdf6_8	0.331719;
cdf6_9	0.433414;
cdf6_10	0.59322;
cdf6_11	0.692494;
cdf6_12	0.784504;
cdf6_13	0.874092;
cdf6_14	0.920097;
cdf6_15	0.966102;
cdf6_16	0.98063;
cdf6_17	0.992736;
cdf6_18	0.997579;
cdf6_19	1;
localMin7	-84.2661;
localMax7	84.4726;
cdf7_0	0.00508906;
cdf7_1	0.0178117;
cdf7_2	0.0305344;
cdf7_3	0.0407125;
cdf7_4	0.0712468;
cdf7_5	0.117048;
cdf7_6	0.188295;
cdf7_7	0.264631;
cdf7_8	0.389313;
cdf7_9	0.541985;
cdf7_10	0.664122;
cdf7_11	0.743003;
cdf7_12	0.821883;
cdf7_13	0.870229;
cdf7_14	0.916031;
cdf7_15	0.946565;
cdf7_16	0.959288;
cdf7_17	0.987277;
cdf7_18	0.992366;
cdf7_19	1;
localMin8	-87.3984;
localMax8	98.9487;
cdf8_0	0.00931677;
cdf8_1	0.015528;
cdf8_2	0.0310559;
cdf8_3	0.052795;
cdf8_4	0.0900621;
cdf8_5	0.149068;
cdf8_6	0.21118;
cdf8_7	0.310559;
cdf8_8	0.403727;
cdf8_9	0.524845;
cdf8_10	0.677019;
cdf8_11	0.754658;
cdf8_12	0.832298;
cdf8_13	0.897516;
cdf8_14	0.925466;
cdf8_15	0.959627;
cdf8_16	0.987578;
cdf8_17	0.993789;
cdf8_18	0.996894;
cdf8_19	1;
localMin9	-90.7245;
localMax9	101.794;
cdf9_0	0.0041841;
cdf9_1	0.0125523;
cdf9_2	0.0292887;
cdf9_3	0.041841;
cdf9_4	0.0669456;
cdf9_5	0.125523;
cdf9_6	0.230126;
cdf9_7	0.309623;
cdf9_8	0.401674;
cdf9_9	0.518828;
cdf9_10	0.623431;
cdf9_11	0.736402;
cdf9_12	0.832636;
cdf9_13	0.895397;
cdf9_14	0.937238;
cdf9_15	0.962343;
cdf9_16	0.991632;
cdf9_17	0.995816;
cdf9_18	0.995816;
cdf9_19	1;
localMin10	-70.1748;
localMax10	81.893;
cdf10_0	0.0121212;
cdf10_1	0.0424242;
cdf10_2	0.0666667;
cdf10_3	0.0969697;
cdf10_4	0.157576;
cdf10_5	0.230303;
cdf10_6	0.272727;
cdf10_7	0.339394;
cdf10_8	0.448485;
cdf10_9	0.539394;
cdf10_10	0.624242;
cdf10_11	0.666667;
cdf10_12	0.757576;
cdf10_13	0.812121;
cdf10_14	0.884848;
cdf10_15	0.933333;
cdf10_16	0.969697;
cdf10_17	0.993939;
cdf10_18	0.993939;
cdf10_19	1;
localMin11	-76.1061;
localMax11	65.234;
cdf11_0	0.0215054;
cdf11_1	0.0215054;
cdf11_2	0.0430108;
cdf11_3	0.0860215;
cdf11_4	0.150538;
cdf11_5	0.172043;
cdf11_6	0.268817;
cdf11_7	0.322581;
cdf11_8	0.408602;
cdf11_9	0.505376;
cdf11_10	0.548387;
cdf11_11	0.645161;
cdf11_12	0.677419;
cdf11_13	0.752688;
cdf11_14	0.817204;
cdf11_15	0.83871;
cdf11_16	0.88172;
cdf11_17	0.924731;
cdf11_18	0.946237;
cdf11_19	0.989247;
localMin12	-82.1195;
localMax12	87.721;
cdf12_0	0.0178571;
cdf12_1	0.0178571;
cdf12_2	0.0714286;
cdf12_3	0.107143;
cdf12_4	0.125;
cdf12_5	0.196429;
cdf12_6	0.232143;
cdf12_7	0.410714;
cdf12_8	0.5;
cdf12_9	0.571429;
cdf12_10	0.660714;
cdf12_11	0.839286;
cdf12_12	0.839286;
cdf12_13	0.857143;
cdf12_14	0.892857;
cdf12_15	0.910714;
cdf12_16	0.946429;
cdf12_17	0.946429;
cdf12_18	0.964286;
cdf12_19	1;
localMin13	-72.7926;
localMax13	80.4987;
cdf13_0	0.0357143;
cdf13_1	0.0357143;
cdf13_2	0.0357143;
cdf13_3	0.0714286;
cdf13_4	0.178571;
cdf13_5	0.285714;
cdf13_6	0.321429;
cdf13_7	0.428571;
cdf13_8	0.535714;
cdf13_9	0.571429;
cdf13_10	0.607143;
cdf13_11	0.678571;
cdf13_12	0.785714;
cdf13_13	0.821429;
cdf13_14	0.821429;
cdf13_15	0.892857;
cdf13_16	0.928571;
cdf13_17	0.964286;
cdf13_18	0.964286;
cdf13_19	1;
localMin14	-58.517;
localMax14	70.8078;
cdf14_0	0.0555556;
cdf14_1	0.0555556;
cdf14_2	0.166667;
cdf14_3	0.333333;
cdf14_4	0.333333;
cdf14_5	0.333333;
cdf14_6	0.388889;
cdf14_7	0.444444;
cdf14_8	0.444444;
cdf14_9	0.555556;
cdf14_10	0.611111;
cdf14_11	0.611111;
cdf14_12	0.611111;
cdf14_13	0.666667;
cdf14_14	0.777778;
cdf14_15	0.777778;
cdf14_16	0.888889;
cdf14_17	0.944444;
cdf14_18	0.944444;
cdf14_19	1;
localMin15	-48.0531;
localMax15	29.0073;
cdf15_0	0.285714;
cdf15_1	0.285714;
cdf15_2	0.285714;
cdf15_3	0.285714;
cdf15_4	0.428571;
cdf15_5	0.714286;
cdf15_6	0.714286;
cdf15_7	0.714286;
cdf15_8	0.714286;
cdf15_9	0.714286;
cdf15_10	0.714286;
cdf15_11	0.714286;
cdf15_12	0.714286;
cdf15_13	0.714286;
cdf15_14	0.857143;
cdf15_15	0.857143;
cdf15_16	0.857143;
cdf15_17	0.857143;
cdf15_18	0.857143;
cdf15_19	1;
localMin16	-24.4208;
localMax16	18.2682;
cdf16_0	0.5;
cdf16_1	0.5;
cdf16_2	0.5;
cdf16_3	0.5;
cdf16_4	0.5;
cdf16_5	0.5;
cdf16_6	0.5;
cdf16_7	0.5;
cdf16_8	0.5;
cdf16_9	0.5;
cdf16_10	0.5;
cdf16_11	0.5;
cdf16_12	0.5;
cdf16_13	0.5;
cdf16_14	0.5;
cdf16_15	0.5;
cdf16_16	0.5;
cdf16_17	0.5;
cdf16_18	0.5;
cdf16_19	1;
localMin17	-52.6892;
localMax17	-13.5299;
cdf17_0	0.5;
cdf17_1	0.5;
cdf17_2	0.5;
cdf17_3	0.5;
cdf17_4	0.5;
cdf17_5	0.5;
cdf17_6	0.5;
cdf17_7	0.5;
cdf17_8	0.5;
cdf17_9	0.5;
cdf17_10	0.5;
cdf17_11	0.5;
cdf17_12	0.5;
cdf17_13	0.5;
cdf17_14	0.5;
cdf17_15	0.5;
cdf17_16	0.5;
cdf17_17	0.5;
cdf17_18	0.5;
cdf17_19	0.5;
localMin18	100000;
localMax18	-100000;
cdf18_0	-nan;
cdf18_1	-nan;
cdf18_2	-nan;
cdf18_3	-nan;
cdf18_4	-nan;
cdf18_5	-nan;
cdf18_6	-nan;
cdf18_7	-nan;
cdf18_8	-nan;
cdf18_9	-nan;
cdf18_10	-nan;
cdf18_11	-nan;
cdf18_12	-nan;
cdf18_13	-nan;
cdf18_14	-nan;
cdf18_15	-nan;
cdf18_16	-nan;
cdf18_17	-nan;
cdf18_18	-nan;
cdf18_19	-nan;
localMin19	-36.3711;
localMax19	-36.3711;
cdf19_0	0;
cdf19_1	0;
cdf19_2	0;
cdf19_3	0;
cdf19_4	0;
cdf19_5	0;
cdf19_6	0;
cdf19_7	0;
cdf19_8	0;
cdf19_9	0;
cdf19_10	0;
cdf19_11	0;
cdf19_12	0;
cdf19_13	0;
cdf19_14	0;
cdf19_15	0;
cdf19_16	0;
cdf19_17	0;
cdf19_18	0;
cdf19_19	0;
